*3.PMOS Output Characteristics 
.MODEL NMOS1 PMOS VTO=-1 KP=200U LAMBDA=0.01 
.DC VDS -10 0 0.5 VGS -5 0 1 
M1 2 1 0 0 NMOS1 
.PRINT DC ID(M1) 
VGS 1 0 
VDS 2 0 
.PROBE 
.END
