* nMOS as inveter with nMOS load(enhancement)
.MODEL NMOS1 NMOS VTO=1 KP=200U LAMBDA=0.01
.MODEL DNMOS1 NMOS VTO=-2 KP=200U LAMBDA=0.01
VDD 2 0 5V
VIN 1 0 DC 5V PULSE (0 5V 0 1nS 1nS 10US 20US)
M1 2 3 3 0 DNMOS1
M2 3 1 0 0 NMOS1
.TRAN 1US 50US
.TF V(3) VIN
.OP
.PLOT TRAN V(3) V(1)
.PROBE
.END
