*n-channel MOS Inverter with depletion nMOS load

.MODEL NMOS1 NMOS VTO=1 KP=4.5E-4 CBD=5PF CBS=2PF

+ RD=5 RS=2 RB=0 RG=0 RDS=1MEG CGSO=1PF CGDO=1PF CGBO=1PF LAMBDA=0.01 L=1U W=1U 

VDD 2 0 5V

M1 2 3 3 0 NMOS1

M2 3 1 0 0 NMOS1

VIN 1 0 DC 5V PULSE (0 5V 0 1NS 1NS 10US 20US)

.TRAN 100NS 40US

.TF V(3) VIN

.OP

.PLOT TRAN V(3) V(1)

.PROBE

.END
