
*Mayank 8562
.MODEL PMOS1 PMOS VTO=-0.7 KP=1.5E-4 CBD=50PF CBS=20PF 
+ RD=5 RS=2 RB=0 RG=0 RDS=1MEG CGSO=10PF CGDO=10PF CGBO=10PF LAMBDA=0.01 L=1U W=1U 
.MODEL NMOS1 NMOS VTO=0.6 KP=4.5E-5 CBD=50PF CBS=20PF 
+ RD=5 RS=2 RB=0 RG=0 RDS=1MEG CGSO=10PF CGDO=10PF CGBO=10PF LAMBDA=0.01 L=1U W=1U 
VDD 2 0 1.5V 
IP 1 0 PULSE(0 0.2MA 0 0.1NS 0.1NS 0.2NS 200S) 
M1 3 1 2 2 PMOS1 
M2 3 1 0 0 NMOS1 
M3 4 3 2 2 PMOS1 
M4 4 3 0 0 NMOS1 
M5 1 4 2 2 PMOS1 
M6 1 4 0 0 NMOS1 
.TRAN 0.001US 500US 
.PROBE 
.END
