*To study the input-output response of n-channel MOS Inverter with resistive load 
.MODEL NMOS1 NMOS (VTO=1 KP=4.5E-4 CBD=5PF CBS=2PF RD=5 RS=2 RB=0 
+ RG=0 RDS=1MEG CGSO=1PF CGDO=1PF CGBO=1PF LAMBDA=0.01 L=1U W=1U) 
VDD 2 0 5V 
VIN 4 0 DC 5V PULSE (0 5V 0 1NS 1NS 1US 2US) 
RL 2 3 100K 
M2 3 4 0 0 NMOS1 
.TRAN 100NS 4US 
.TF V(3) VIN 
.OP 
.PLOT TRAN V(3) V(4) 
.PROBE 
.END
