*PMOS Transfer Characteristics
.MODEL NMOS1 PMOS VTO=-0.8 KP=200U LAMBDA=0.01 
.DC VGS -10 0 0.5 VDS -5 0 1
M1 2 1 0 0 NMOS1
.PRINT DC ID(M1)
VGS 1 0
VDS 2 0
.PROBE 
.END
